<?xml version="1.0" encoding="utf-8"?>
<!DOCTYPE population SYSTEM "http://www.matsim.org/files/dtd/population_v6.dtd">

<population>



<!-- ====================================================================== -->

	<person id="person_0">
		<plan selected="yes">
			<activity type="home" x="423321.8999744049" y="5545419.05883264" end_time="07:30:00" >
			</activity>
			<leg mode="car">
			</leg>
			<activity type="work" x="423127.27545815904" y="5545257.324252227" end_time="16:30:00" >
			</activity>
			<leg mode="car">
			</leg>
			<activity type="home" x="423321.8999744049" y="5545419.05883264" end_time="596523:14:07" >
			</activity>
		</plan>

	</person>

<!-- ====================================================================== -->

	<person id="person_1">
		<plan selected="yes">
			<activity type="home" x="423182.97427784745" y="5545407.062539328" end_time="07:30:00" >
			</activity>
			<leg mode="car">
			</leg>
			<activity type="work" x="423250.9990289205" y="5545271.405533751" end_time="16:30:00" >
			</activity>
			<leg mode="car">
			</leg>
			<activity type="home" x="423182.97427784745" y="5545407.062539328" end_time="596523:14:07" >
			</activity>
		</plan>

	</person>

<!-- ====================================================================== -->

	<person id="person_10">
		<plan selected="yes">
			<activity type="home" x="423127.27545815904" y="5545257.324252227" end_time="07:30:00" >
			</activity>
			<leg mode="car">
			</leg>
			<activity type="work" x="423297.178059199" y="5545368.147721792" end_time="16:30:00" >
			</activity>
			<leg mode="car">
			</leg>
			<activity type="home" x="423127.27545815904" y="5545257.324252227" end_time="596523:14:07" >
			</activity>
		</plan>

	</person>

<!-- ====================================================================== -->

	<person id="person_100">
		<plan selected="yes">
			<activity type="home" x="423321.8999744049" y="5545419.05883264" end_time="07:30:00" >
			</activity>
			<leg mode="car">
			</leg>
			<activity type="work" x="423127.27545815904" y="5545257.324252227" end_time="16:30:00" >
			</activity>
			<leg mode="car">
			</leg>
			<activity type="home" x="423321.8999744049" y="5545419.05883264" end_time="596523:14:07" >
			</activity>
		</plan>

	</person>

<!-- ====================================================================== -->

	<person id="person_101">
		<plan selected="yes">
			<activity type="home" x="423182.97427784745" y="5545407.062539328" end_time="07:30:00" >
			</activity>
			<leg mode="car">
			</leg>
			<activity type="work" x="423250.9990289205" y="5545271.405533751" end_time="16:30:00" >
			</activity>
			<leg mode="car">
			</leg>
			<activity type="home" x="423182.97427784745" y="5545407.062539328" end_time="596523:14:07" >
			</activity>
		</plan>

	</person>

<!-- ====================================================================== -->

	<person id="person_102">
		<plan selected="yes">
			<activity type="home" x="423127.27545815904" y="5545257.324252227" end_time="07:30:00" >
			</activity>
			<leg mode="car">
			</leg>
			<activity type="work" x="423297.178059199" y="5545368.147721792" end_time="16:30:00" >
			</activity>
			<leg mode="car">
			</leg>
			<activity type="home" x="423127.27545815904" y="5545257.324252227" end_time="596523:14:07" >
			</activity>
		</plan>

	</person>

<!-- ====================================================================== -->

	<person id="person_103">
		<plan selected="yes">
			<activity type="home" x="423250.9990289205" y="5545271.405533751" end_time="07:30:00" >
			</activity>
			<leg mode="car">
			</leg>
			<activity type="work" x="423208.189120309" y="5545409.45837616" end_time="16:30:00" >
			</activity>
			<leg mode="car">
			</leg>
			<activity type="home" x="423250.9990289205" y="5545271.405533751" end_time="596523:14:07" >
			</activity>
		</plan>

	</person>

<!-- ====================================================================== -->

	<person id="person_104">
		<plan selected="yes">
			<activity type="home" x="423321.8999744049" y="5545419.05883264" end_time="07:30:00" >
			</activity>
			<leg mode="car">
			</leg>
			<activity type="work" x="423127.27545815904" y="5545257.324252227" end_time="16:30:00" >
			</activity>
			<leg mode="car">
			</leg>
			<activity type="home" x="423321.8999744049" y="5545419.05883264" end_time="596523:14:07" >
			</activity>
		</plan>

	</person>

<!-- ====================================================================== -->

	<person id="person_105">
		<plan selected="yes">
			<activity type="home" x="423182.97427784745" y="5545407.062539328" end_time="07:30:00" >
			</activity>
			<leg mode="car">
			</leg>
			<activity type="work" x="423250.9990289205" y="5545271.405533751" end_time="16:30:00" >
			</activity>
			<leg mode="car">
			</leg>
			<activity type="home" x="423182.97427784745" y="5545407.062539328" end_time="596523:14:07" >
			</activity>
		</plan>

	</person>

<!-- ====================================================================== -->

	<person id="person_106">
		<plan selected="yes">
			<activity type="home" x="423127.27545815904" y="5545257.324252227" end_time="07:30:00" >
			</activity>
			<leg mode="car">
			</leg>
			<activity type="work" x="423297.178059199" y="5545368.147721792" end_time="16:30:00" >
			</activity>
			<leg mode="car">
			</leg>
			<activity type="home" x="423127.27545815904" y="5545257.324252227" end_time="596523:14:07" >
			</activity>
		</plan>

	</person>

<!-- ====================================================================== -->

	<person id="person_107">
		<plan selected="yes">
			<activity type="home" x="423250.9990289205" y="5545271.405533751" end_time="07:30:00" >
			</activity>
			<leg mode="car">
			</leg>
			<activity type="work" x="423208.189120309" y="5545409.45837616" end_time="16:30:00" >
			</activity>
			<leg mode="car">
			</leg>
			<activity type="home" x="423250.9990289205" y="5545271.405533751" end_time="596523:14:07" >
			</activity>
		</plan>

	</person>

<!-- ====================================================================== -->

	<person id="person_108">
		<plan selected="yes">
			<activity type="home" x="423321.8999744049" y="5545419.05883264" end_time="07:30:00" >
			</activity>
			<leg mode="car">
			</leg>
			<activity type="work" x="423127.27545815904" y="5545257.324252227" end_time="16:30:00" >
			</activity>
			<leg mode="car">
			</leg>
			<activity type="home" x="423321.8999744049" y="5545419.05883264" end_time="596523:14:07" >
			</activity>
		</plan>

	</person>

<!-- ====================================================================== -->

	<person id="person_109">
		<plan selected="yes">
			<activity type="home" x="423182.97427784745" y="5545407.062539328" end_time="07:30:00" >
			</activity>
			<leg mode="car">
			</leg>
			<activity type="work" x="423250.9990289205" y="5545271.405533751" end_time="16:30:00" >
			</activity>
			<leg mode="car">
			</leg>
			<activity type="home" x="423182.97427784745" y="5545407.062539328" end_time="596523:14:07" >
			</activity>
		</plan>

	</person>

<!-- ====================================================================== -->

	<person id="person_11">
		<plan selected="yes">
			<activity type="home" x="423250.9990289205" y="5545271.405533751" end_time="07:30:00" >
			</activity>
			<leg mode="car">
			</leg>
			<activity type="work" x="423208.189120309" y="5545409.45837616" end_time="16:30:00" >
			</activity>
			<leg mode="car">
			</leg>
			<activity type="home" x="423250.9990289205" y="5545271.405533751" end_time="596523:14:07" >
			</activity>
		</plan>

	</person>

<!-- ====================================================================== -->

	<person id="person_110">
		<plan selected="yes">
			<activity type="home" x="423127.27545815904" y="5545257.324252227" end_time="07:30:00" >
			</activity>
			<leg mode="car">
			</leg>
			<activity type="work" x="423297.178059199" y="5545368.147721792" end_time="16:30:00" >
			</activity>
			<leg mode="car">
			</leg>
			<activity type="home" x="423127.27545815904" y="5545257.324252227" end_time="596523:14:07" >
			</activity>
		</plan>

	</person>

<!-- ====================================================================== -->

	<person id="person_111">
		<plan selected="yes">
			<activity type="home" x="423250.9990289205" y="5545271.405533751" end_time="07:30:00" >
			</activity>
			<leg mode="car">
			</leg>
			<activity type="work" x="423208.189120309" y="5545409.45837616" end_time="16:30:00" >
			</activity>
			<leg mode="car">
			</leg>
			<activity type="home" x="423250.9990289205" y="5545271.405533751" end_time="596523:14:07" >
			</activity>
		</plan>

	</person>

<!-- ====================================================================== -->

	<person id="person_112">
		<plan selected="yes">
			<activity type="home" x="423321.8999744049" y="5545419.05883264" end_time="07:30:00" >
			</activity>
			<leg mode="car">
			</leg>
			<activity type="work" x="423127.27545815904" y="5545257.324252227" end_time="16:30:00" >
			</activity>
			<leg mode="car">
			</leg>
			<activity type="home" x="423321.8999744049" y="5545419.05883264" end_time="596523:14:07" >
			</activity>
		</plan>

	</person>

<!-- ====================================================================== -->

	<person id="person_113">
		<plan selected="yes">
			<activity type="home" x="423182.97427784745" y="5545407.062539328" end_time="07:30:00" >
			</activity>
			<leg mode="car">
			</leg>
			<activity type="work" x="423250.9990289205" y="5545271.405533751" end_time="16:30:00" >
			</activity>
			<leg mode="car">
			</leg>
			<activity type="home" x="423182.97427784745" y="5545407.062539328" end_time="596523:14:07" >
			</activity>
		</plan>

	</person>

<!-- ====================================================================== -->

	<person id="person_114">
		<plan selected="yes">
			<activity type="home" x="423127.27545815904" y="5545257.324252227" end_time="07:30:00" >
			</activity>
			<leg mode="car">
			</leg>
			<activity type="work" x="423297.178059199" y="5545368.147721792" end_time="16:30:00" >
			</activity>
			<leg mode="car">
			</leg>
			<activity type="home" x="423127.27545815904" y="5545257.324252227" end_time="596523:14:07" >
			</activity>
		</plan>

	</person>

<!-- ====================================================================== -->

	<person id="person_115">
		<plan selected="yes">
			<activity type="home" x="423250.9990289205" y="5545271.405533751" end_time="07:30:00" >
			</activity>
			<leg mode="car">
			</leg>
			<activity type="work" x="423208.189120309" y="5545409.45837616" end_time="16:30:00" >
			</activity>
			<leg mode="car">
			</leg>
			<activity type="home" x="423250.9990289205" y="5545271.405533751" end_time="596523:14:07" >
			</activity>
		</plan>

	</person>

<!-- ====================================================================== -->

	<person id="person_116">
		<plan selected="yes">
			<activity type="home" x="423321.8999744049" y="5545419.05883264" end_time="07:30:00" >
			</activity>
			<leg mode="car">
			</leg>
			<activity type="work" x="423127.27545815904" y="5545257.324252227" end_time="16:30:00" >
			</activity>
			<leg mode="car">
			</leg>
			<activity type="home" x="423321.8999744049" y="5545419.05883264" end_time="596523:14:07" >
			</activity>
		</plan>

	</person>

<!-- ====================================================================== -->

	<person id="person_117">
		<plan selected="yes">
			<activity type="home" x="423182.97427784745" y="5545407.062539328" end_time="07:30:00" >
			</activity>
			<leg mode="car">
			</leg>
			<activity type="work" x="423250.9990289205" y="5545271.405533751" end_time="16:30:00" >
			</activity>
			<leg mode="car">
			</leg>
			<activity type="home" x="423182.97427784745" y="5545407.062539328" end_time="596523:14:07" >
			</activity>
		</plan>

	</person>

<!-- ====================================================================== -->

	<person id="person_118">
		<plan selected="yes">
			<activity type="home" x="423127.27545815904" y="5545257.324252227" end_time="07:30:00" >
			</activity>
			<leg mode="car">
			</leg>
			<activity type="work" x="423297.178059199" y="5545368.147721792" end_time="16:30:00" >
			</activity>
			<leg mode="car">
			</leg>
			<activity type="home" x="423127.27545815904" y="5545257.324252227" end_time="596523:14:07" >
			</activity>
		</plan>

	</person>

<!-- ====================================================================== -->

	<person id="person_119">
		<plan selected="yes">
			<activity type="home" x="423250.9990289205" y="5545271.405533751" end_time="07:30:00" >
			</activity>
			<leg mode="car">
			</leg>
			<activity type="work" x="423208.189120309" y="5545409.45837616" end_time="16:30:00" >
			</activity>
			<leg mode="car">
			</leg>
			<activity type="home" x="423250.9990289205" y="5545271.405533751" end_time="596523:14:07" >
			</activity>
		</plan>

	</person>

<!-- ====================================================================== -->

	<person id="person_12">
		<plan selected="yes">
			<activity type="home" x="423321.8999744049" y="5545419.05883264" end_time="07:30:00" >
			</activity>
			<leg mode="car">
			</leg>
			<activity type="work" x="423127.27545815904" y="5545257.324252227" end_time="16:30:00" >
			</activity>
			<leg mode="car">
			</leg>
			<activity type="home" x="423321.8999744049" y="5545419.05883264" end_time="596523:14:07" >
			</activity>
		</plan>

	</person>

<!-- ====================================================================== -->

	<person id="person_120">
		<plan selected="yes">
			<activity type="home" x="423321.8999744049" y="5545419.05883264" end_time="07:30:00" >
			</activity>
			<leg mode="car">
			</leg>
			<activity type="work" x="423127.27545815904" y="5545257.324252227" end_time="16:30:00" >
			</activity>
			<leg mode="car">
			</leg>
			<activity type="home" x="423321.8999744049" y="5545419.05883264" end_time="596523:14:07" >
			</activity>
		</plan>

	</person>

<!-- ====================================================================== -->

	<person id="person_121">
		<plan selected="yes">
			<activity type="home" x="423182.97427784745" y="5545407.062539328" end_time="07:30:00" >
			</activity>
			<leg mode="car">
			</leg>
			<activity type="work" x="423250.9990289205" y="5545271.405533751" end_time="16:30:00" >
			</activity>
			<leg mode="car">
			</leg>
			<activity type="home" x="423182.97427784745" y="5545407.062539328" end_time="596523:14:07" >
			</activity>
		</plan>

	</person>

<!-- ====================================================================== -->

	<person id="person_122">
		<plan selected="yes">
			<activity type="home" x="423127.27545815904" y="5545257.324252227" end_time="07:30:00" >
			</activity>
			<leg mode="car">
			</leg>
			<activity type="work" x="423297.178059199" y="5545368.147721792" end_time="16:30:00" >
			</activity>
			<leg mode="car">
			</leg>
			<activity type="home" x="423127.27545815904" y="5545257.324252227" end_time="596523:14:07" >
			</activity>
		</plan>

	</person>

<!-- ====================================================================== -->

	<person id="person_123">
		<plan selected="yes">
			<activity type="home" x="423250.9990289205" y="5545271.405533751" end_time="07:30:00" >
			</activity>
			<leg mode="car">
			</leg>
			<activity type="work" x="423208.189120309" y="5545409.45837616" end_time="16:30:00" >
			</activity>
			<leg mode="car">
			</leg>
			<activity type="home" x="423250.9990289205" y="5545271.405533751" end_time="596523:14:07" >
			</activity>
		</plan>

	</person>

<!-- ====================================================================== -->

	<person id="person_124">
		<plan selected="yes">
			<activity type="home" x="423321.8999744049" y="5545419.05883264" end_time="07:30:00" >
			</activity>
			<leg mode="car">
			</leg>
			<activity type="work" x="423127.27545815904" y="5545257.324252227" end_time="16:30:00" >
			</activity>
			<leg mode="car">
			</leg>
			<activity type="home" x="423321.8999744049" y="5545419.05883264" end_time="596523:14:07" >
			</activity>
		</plan>

	</person>

<!-- ====================================================================== -->

	<person id="person_125">
		<plan selected="yes">
			<activity type="home" x="423182.97427784745" y="5545407.062539328" end_time="07:30:00" >
			</activity>
			<leg mode="car">
			</leg>
			<activity type="work" x="423250.9990289205" y="5545271.405533751" end_time="16:30:00" >
			</activity>
			<leg mode="car">
			</leg>
			<activity type="home" x="423182.97427784745" y="5545407.062539328" end_time="596523:14:07" >
			</activity>
		</plan>

	</person>

<!-- ====================================================================== -->

	<person id="person_126">
		<plan selected="yes">
			<activity type="home" x="423127.27545815904" y="5545257.324252227" end_time="07:30:00" >
			</activity>
			<leg mode="car">
			</leg>
			<activity type="work" x="423297.178059199" y="5545368.147721792" end_time="16:30:00" >
			</activity>
			<leg mode="car">
			</leg>
			<activity type="home" x="423127.27545815904" y="5545257.324252227" end_time="596523:14:07" >
			</activity>
		</plan>

	</person>

<!-- ====================================================================== -->

	<person id="person_127">
		<plan selected="yes">
			<activity type="home" x="423250.9990289205" y="5545271.405533751" end_time="07:30:00" >
			</activity>
			<leg mode="car">
			</leg>
			<activity type="work" x="423208.189120309" y="5545409.45837616" end_time="16:30:00" >
			</activity>
			<leg mode="car">
			</leg>
			<activity type="home" x="423250.9990289205" y="5545271.405533751" end_time="596523:14:07" >
			</activity>
		</plan>

	</person>

<!-- ====================================================================== -->

	<person id="person_128">
		<plan selected="yes">
			<activity type="home" x="423321.8999744049" y="5545419.05883264" end_time="07:30:00" >
			</activity>
			<leg mode="car">
			</leg>
			<activity type="work" x="423127.27545815904" y="5545257.324252227" end_time="16:30:00" >
			</activity>
			<leg mode="car">
			</leg>
			<activity type="home" x="423321.8999744049" y="5545419.05883264" end_time="596523:14:07" >
			</activity>
		</plan>

	</person>

<!-- ====================================================================== -->

	<person id="person_129">
		<plan selected="yes">
			<activity type="home" x="423182.97427784745" y="5545407.062539328" end_time="07:30:00" >
			</activity>
			<leg mode="car">
			</leg>
			<activity type="work" x="423250.9990289205" y="5545271.405533751" end_time="16:30:00" >
			</activity>
			<leg mode="car">
			</leg>
			<activity type="home" x="423182.97427784745" y="5545407.062539328" end_time="596523:14:07" >
			</activity>
		</plan>

	</person>

<!-- ====================================================================== -->

	<person id="person_13">
		<plan selected="yes">
			<activity type="home" x="423182.97427784745" y="5545407.062539328" end_time="07:30:00" >
			</activity>
			<leg mode="car">
			</leg>
			<activity type="work" x="423250.9990289205" y="5545271.405533751" end_time="16:30:00" >
			</activity>
			<leg mode="car">
			</leg>
			<activity type="home" x="423182.97427784745" y="5545407.062539328" end_time="596523:14:07" >
			</activity>
		</plan>

	</person>

<!-- ====================================================================== -->

	<person id="person_130">
		<plan selected="yes">
			<activity type="home" x="423127.27545815904" y="5545257.324252227" end_time="07:30:00" >
			</activity>
			<leg mode="car">
			</leg>
			<activity type="work" x="423297.178059199" y="5545368.147721792" end_time="16:30:00" >
			</activity>
			<leg mode="car">
			</leg>
			<activity type="home" x="423127.27545815904" y="5545257.324252227" end_time="596523:14:07" >
			</activity>
		</plan>

	</person>

<!-- ====================================================================== -->

	<person id="person_131">
		<plan selected="yes">
			<activity type="home" x="423250.9990289205" y="5545271.405533751" end_time="07:30:00" >
			</activity>
			<leg mode="car">
			</leg>
			<activity type="work" x="423208.189120309" y="5545409.45837616" end_time="16:30:00" >
			</activity>
			<leg mode="car">
			</leg>
			<activity type="home" x="423250.9990289205" y="5545271.405533751" end_time="596523:14:07" >
			</activity>
		</plan>

	</person>

<!-- ====================================================================== -->

	<person id="person_132">
		<plan selected="yes">
			<activity type="home" x="423321.8999744049" y="5545419.05883264" end_time="07:30:00" >
			</activity>
			<leg mode="car">
			</leg>
			<activity type="work" x="423127.27545815904" y="5545257.324252227" end_time="16:30:00" >
			</activity>
			<leg mode="car">
			</leg>
			<activity type="home" x="423321.8999744049" y="5545419.05883264" end_time="596523:14:07" >
			</activity>
		</plan>

	</person>

<!-- ====================================================================== -->

	<person id="person_133">
		<plan selected="yes">
			<activity type="home" x="423182.97427784745" y="5545407.062539328" end_time="07:30:00" >
			</activity>
			<leg mode="car">
			</leg>
			<activity type="work" x="423250.9990289205" y="5545271.405533751" end_time="16:30:00" >
			</activity>
			<leg mode="car">
			</leg>
			<activity type="home" x="423182.97427784745" y="5545407.062539328" end_time="596523:14:07" >
			</activity>
		</plan>

	</person>

<!-- ====================================================================== -->

	<person id="person_134">
		<plan selected="yes">
			<activity type="home" x="423127.27545815904" y="5545257.324252227" end_time="07:30:00" >
			</activity>
			<leg mode="car">
			</leg>
			<activity type="work" x="423297.178059199" y="5545368.147721792" end_time="16:30:00" >
			</activity>
			<leg mode="car">
			</leg>
			<activity type="home" x="423127.27545815904" y="5545257.324252227" end_time="596523:14:07" >
			</activity>
		</plan>

	</person>

<!-- ====================================================================== -->

	<person id="person_135">
		<plan selected="yes">
			<activity type="home" x="423250.9990289205" y="5545271.405533751" end_time="07:30:00" >
			</activity>
			<leg mode="car">
			</leg>
			<activity type="work" x="423208.189120309" y="5545409.45837616" end_time="16:30:00" >
			</activity>
			<leg mode="car">
			</leg>
			<activity type="home" x="423250.9990289205" y="5545271.405533751" end_time="596523:14:07" >
			</activity>
		</plan>

	</person>

<!-- ====================================================================== -->

	<person id="person_136">
		<plan selected="yes">
			<activity type="home" x="423321.8999744049" y="5545419.05883264" end_time="07:30:00" >
			</activity>
			<leg mode="car">
			</leg>
			<activity type="work" x="423127.27545815904" y="5545257.324252227" end_time="16:30:00" >
			</activity>
			<leg mode="car">
			</leg>
			<activity type="home" x="423321.8999744049" y="5545419.05883264" end_time="596523:14:07" >
			</activity>
		</plan>

	</person>

<!-- ====================================================================== -->

	<person id="person_137">
		<plan selected="yes">
			<activity type="home" x="423182.97427784745" y="5545407.062539328" end_time="07:30:00" >
			</activity>
			<leg mode="car">
			</leg>
			<activity type="work" x="423250.9990289205" y="5545271.405533751" end_time="16:30:00" >
			</activity>
			<leg mode="car">
			</leg>
			<activity type="home" x="423182.97427784745" y="5545407.062539328" end_time="596523:14:07" >
			</activity>
		</plan>

	</person>

<!-- ====================================================================== -->

	<person id="person_138">
		<plan selected="yes">
			<activity type="home" x="423127.27545815904" y="5545257.324252227" end_time="07:30:00" >
			</activity>
			<leg mode="car">
			</leg>
			<activity type="work" x="423297.178059199" y="5545368.147721792" end_time="16:30:00" >
			</activity>
			<leg mode="car">
			</leg>
			<activity type="home" x="423127.27545815904" y="5545257.324252227" end_time="596523:14:07" >
			</activity>
		</plan>

	</person>

<!-- ====================================================================== -->

	<person id="person_139">
		<plan selected="yes">
			<activity type="home" x="423250.9990289205" y="5545271.405533751" end_time="07:30:00" >
			</activity>
			<leg mode="car">
			</leg>
			<activity type="work" x="423208.189120309" y="5545409.45837616" end_time="16:30:00" >
			</activity>
			<leg mode="car">
			</leg>
			<activity type="home" x="423250.9990289205" y="5545271.405533751" end_time="596523:14:07" >
			</activity>
		</plan>

	</person>

<!-- ====================================================================== -->

	<person id="person_14">
		<plan selected="yes">
			<activity type="home" x="423127.27545815904" y="5545257.324252227" end_time="07:30:00" >
			</activity>
			<leg mode="car">
			</leg>
			<activity type="work" x="423297.178059199" y="5545368.147721792" end_time="16:30:00" >
			</activity>
			<leg mode="car">
			</leg>
			<activity type="home" x="423127.27545815904" y="5545257.324252227" end_time="596523:14:07" >
			</activity>
		</plan>

	</person>

<!-- ====================================================================== -->

	<person id="person_140">
		<plan selected="yes">
			<activity type="home" x="423321.8999744049" y="5545419.05883264" end_time="07:30:00" >
			</activity>
			<leg mode="car">
			</leg>
			<activity type="work" x="423127.27545815904" y="5545257.324252227" end_time="16:30:00" >
			</activity>
			<leg mode="car">
			</leg>
			<activity type="home" x="423321.8999744049" y="5545419.05883264" end_time="596523:14:07" >
			</activity>
		</plan>

	</person>

<!-- ====================================================================== -->

	<person id="person_141">
		<plan selected="yes">
			<activity type="home" x="423182.97427784745" y="5545407.062539328" end_time="07:30:00" >
			</activity>
			<leg mode="car">
			</leg>
			<activity type="work" x="423250.9990289205" y="5545271.405533751" end_time="16:30:00" >
			</activity>
			<leg mode="car">
			</leg>
			<activity type="home" x="423182.97427784745" y="5545407.062539328" end_time="596523:14:07" >
			</activity>
		</plan>

	</person>

<!-- ====================================================================== -->

	<person id="person_142">
		<plan selected="yes">
			<activity type="home" x="423127.27545815904" y="5545257.324252227" end_time="07:30:00" >
			</activity>
			<leg mode="car">
			</leg>
			<activity type="work" x="423297.178059199" y="5545368.147721792" end_time="16:30:00" >
			</activity>
			<leg mode="car">
			</leg>
			<activity type="home" x="423127.27545815904" y="5545257.324252227" end_time="596523:14:07" >
			</activity>
		</plan>

	</person>

<!-- ====================================================================== -->

	<person id="person_143">
		<plan selected="yes">
			<activity type="home" x="423250.9990289205" y="5545271.405533751" end_time="07:30:00" >
			</activity>
			<leg mode="car">
			</leg>
			<activity type="work" x="423208.189120309" y="5545409.45837616" end_time="16:30:00" >
			</activity>
			<leg mode="car">
			</leg>
			<activity type="home" x="423250.9990289205" y="5545271.405533751" end_time="596523:14:07" >
			</activity>
		</plan>

	</person>

<!-- ====================================================================== -->

	<person id="person_144">
		<plan selected="yes">
			<activity type="home" x="423321.8999744049" y="5545419.05883264" end_time="07:30:00" >
			</activity>
			<leg mode="car">
			</leg>
			<activity type="work" x="423127.27545815904" y="5545257.324252227" end_time="16:30:00" >
			</activity>
			<leg mode="car">
			</leg>
			<activity type="home" x="423321.8999744049" y="5545419.05883264" end_time="596523:14:07" >
			</activity>
		</plan>

	</person>

<!-- ====================================================================== -->

	<person id="person_145">
		<plan selected="yes">
			<activity type="home" x="423182.97427784745" y="5545407.062539328" end_time="07:30:00" >
			</activity>
			<leg mode="car">
			</leg>
			<activity type="work" x="423250.9990289205" y="5545271.405533751" end_time="16:30:00" >
			</activity>
			<leg mode="car">
			</leg>
			<activity type="home" x="423182.97427784745" y="5545407.062539328" end_time="596523:14:07" >
			</activity>
		</plan>

	</person>

<!-- ====================================================================== -->

	<person id="person_146">
		<plan selected="yes">
			<activity type="home" x="423127.27545815904" y="5545257.324252227" end_time="07:30:00" >
			</activity>
			<leg mode="car">
			</leg>
			<activity type="work" x="423297.178059199" y="5545368.147721792" end_time="16:30:00" >
			</activity>
			<leg mode="car">
			</leg>
			<activity type="home" x="423127.27545815904" y="5545257.324252227" end_time="596523:14:07" >
			</activity>
		</plan>

	</person>

<!-- ====================================================================== -->

	<person id="person_147">
		<plan selected="yes">
			<activity type="home" x="423250.9990289205" y="5545271.405533751" end_time="07:30:00" >
			</activity>
			<leg mode="car">
			</leg>
			<activity type="work" x="423208.189120309" y="5545409.45837616" end_time="16:30:00" >
			</activity>
			<leg mode="car">
			</leg>
			<activity type="home" x="423250.9990289205" y="5545271.405533751" end_time="596523:14:07" >
			</activity>
		</plan>

	</person>

<!-- ====================================================================== -->

	<person id="person_148">
		<plan selected="yes">
			<activity type="home" x="423321.8999744049" y="5545419.05883264" end_time="07:30:00" >
			</activity>
			<leg mode="car">
			</leg>
			<activity type="work" x="423127.27545815904" y="5545257.324252227" end_time="16:30:00" >
			</activity>