<?xml version="1.0" encoding="utf-8"?>
<!DOCTYPE population SYSTEM "http://www.matsim.org/files/dtd/population_v6.dtd">

<population>



<!-- ====================================================================== -->

	<person id="car_home0_work0_0">
		<plan selected="yes">
			<activity type="home" x="19.914062291327078" y="50.126164587733044" end_time="09:00:00" >
			</activity>
			<leg mode="car">
			</leg>
			<activity type="work" x="19.783202677820587" y="50.05707689593699" end_time="17:00:00" >
			</activity>
			<leg mode="car">
			</leg>
			<activity type="home" x="19.914062291327078" y="50.126164587733044" end_time="09:00:00" >
			</activity>
		</plan>

	</person>

<!-- ====================================================================== -->

	<person id="car_home0_work0_1">
		<plan selected="yes">
			<activity type="home" x="19.914062291327078" y="50.126164587733044" end_time="09:00:00" >
			</activity>
			<leg mode="car">
			</leg>
			<activity type="work" x="19.783202677820587" y="50.05707689593699" end_time="17:00:00" >
			</activity>
			<leg mode="car">
			</leg>
			<activity type="home" x="19.914062291327078" y="50.126164587733044" end_time="09:00:00" >
			</activity>
		</plan>

	</person>

<!-- ====================================================================== -->

	<person id="car_home0_work0_2">
		<plan selected="yes">
			<activity type="home" x="19.914062291327078" y="50.126164587733044" end_time="09:00:00" >
			</activity>
			<leg mode="car">
			</leg>
			<activity type="work" x="19.783202677820587" y="50.05707689593699" end_time="17:00:00" >
			</activity>
			<leg mode="car">
			</leg>
			<activity type="home" x="19.914062291327078" y="50.126164587733044" end_time="09:00:00" >
			</activity>
		</plan>

	</person>

<!-- ====================================================================== -->

	<person id="car_home0_work0_3">
		<plan selected="yes">
			<activity type="home" x="19.914062291327078" y="50.126164587733044" end_time="09:00:00" >
			</activity>
			<leg mode="car">
			</leg>
			<activity type="work" x="19.783202677820587" y="50.05707689593699" end_time="17:00:00" >
			</activity>
			<leg mode="car">
			</leg>
			<activity type="home" x="19.914062291327078" y="50.126164587733044" end_time="09:00:00" >
			</activity>
		</plan>

	</person>

<!-- ====================================================================== -->

	<person id="car_home1_work1_0">
		<plan selected="yes">
			<activity type="home" x="20.115180110649284" y="50.08905159286304" end_time="09:00:00" >
			</activity>
			<leg mode="car">
			</leg>
			<activity type="work" x="19.81327419564108" y="50.10772873198619" end_time="17:00:00" >
			</activity>
			<leg mode="car">
			</leg>
			<activity type="home" x="20.115180110649284" y="50.08905159286304" end_time="09:00:00" >
			</activity>
		</plan>

	</person>

<!-- ====================================================================== -->

	<person id="car_home1_work1_1">
		<plan selected="yes">
			<activity type="home" x="20.115180110649284" y="50.08905159286304" end_time="09:00:00" >
			</activity>
			<leg mode="car">
			</leg>
			<activity type="work" x="19.81327419564108" y="50.10772873198619" end_time="17:00:00" >
			</activity>
			<leg mode="car">
			</leg>
			<activity type="home" x="20.115180110649284" y="50.08905159286304" end_time="09:00:00" >
			</activity>
		</plan>

	</person>

<!-- ====================================================================== -->

	<person id="car_home1_work1_2">
		<plan selected="yes">
			<activity type="home" x="20.115180110649284" y="50.08905159286304" end_time="09:00:00" >
			</activity>
			<leg mode="car">
			</leg>
			<activity type="work" x="19.81327419564108" y="50.10772873198619" end_time="17:00:00" >
			</activity>
			<leg mode="car">
			</leg>
			<activity type="home" x="20.115180110649284" y="50.08905159286304" end_time="09:00:00" >
			</activity>
		</plan>

	</person>

<!-- ====================================================================== -->

	<person id="car_home1_work1_3">
		<plan selected="yes">
			<activity type="home" x="20.115180110649284" y="50.08905159286304" end_time="09:00:00" >
			</activity>
			<leg mode="car">
			</leg>
			<activity type="work" x="19.81327419564108" y="50.10772873198619" end_time="17:00:00" >
			</activity>
			<leg mode="car">
			</leg>
			<activity type="home" x="20.115180110649284" y="50.08905159286304" end_time="09:00:00" >
			</activity>
		</plan>

	</person>

<!-- ====================================================================== -->

	<person id="car_home2_work2_0">
		<plan selected="yes">
			<activity type="home" x="19.886308483639482" y="49.9603460908394" end_time="09:00:00" >
			</activity>
			<leg mode="car">
			</leg>
			<activity type="work" x="20.249764356230266" y="50.147610672856814" end_time="17:00:00" >
			</activity>
			<leg mode="car">
			</leg>
			<activity type="home" x="19.886308483639482" y="49.9603460908394" end_time="09:00:00" >
			</activity>
		</plan>

	</person>

<!-- ====================================================================== -->

	<person id="car_home2_work2_1">
		<plan selected="yes">
			<activity type="home" x="19.886308483639482" y="49.9603460908394" end_time="09:00:00" >
			</activity>
			<leg mode="car">
			</leg>
			<activity type="work" x="20.249764356230266" y="50.147610672856814" end_time="17:00:00" >
			</activity>
			<leg mode="car">
			</leg>
			<activity type="home" x="19.886308483639482" y="49.9603460908394" end_time="09:00:00" >
			</activity>
		</plan>

	</person>

<!-- ====================================================================== -->

	<person id="car_home2_work2_2">
		<plan selected="yes">
			<activity type="home" x="19.886308483639482" y="49.9603460908394" end_time="09:00:00" >
			</activity>
			<leg mode="car">
			</leg>
			<activity type="work" x="20.249764356230266" y="50.147610672856814" end_time="17:00:00" >
			</activity>
			<leg mode="car">
			</leg>
			<activity type="home" x="19.886308483639482" y="49.9603460908394" end_time="09:00:00" >
			</activity>
		</plan>

	</person>

<!-- ====================================================================== -->

	<person id="car_home2_work2_3">
		<plan selected="yes">
			<activity type="home" x="19.886308483639482" y="49.9603460908394" end_time="09:00:00" >
			</activity>
			<leg mode="car">
			</leg>
			<activity type="work" x="20.249764356230266" y="50.147610672856814" end_time="17:00:00" >
			</activity>
			<leg mode="car">
			</leg>
			<activity type="home" x="19.886308483639482" y="49.9603460908394" end_time="09:00:00" >
			</activity>
		</plan>

	</person>

<!-- ====================================================================== -->

	<person id="car_home3_work3_0">
		<plan selected="yes">
			<activity type="home" x="20.120592693654796" y="50.060414943924116" end_time="09:00:00" >
			</activity>
			<leg mode="car">
			</leg>
			<activity type="work" x="20.280156177905464" y="50.099721380788154" end_time="17:00:00" >
			</activity>
			<leg mode="car">
			</leg>
			<activity type="home" x="20.120592693654796" y="50.060414943924116" end_time="09:00:00" >
			</activity>
		</plan>

	</person>

<!-- ====================================================================== -->

	<person id="car_home3_work3_1">
		<plan selected="yes">
			<activity type="home" x="20.120592693654796" y="50.060414943924116" end_time="09:00:00" >
			</activity>
			<leg mode="car">
			</leg>
			<activity type="work" x="20.280156177905464" y="50.099721380788154" end_time="17:00:00" >
			</activity>
			<leg mode="car">
			</leg>
			<activity type="home" x="20.120592693654796" y="50.060414943924116" end_time="09:00:00" >
			</activity>
		</plan>

	</person>

<!-- ====================================================================== -->

	<person id="car_home3_work3_2">
		<plan selected="yes">
			<activity type="home" x="20.120592693654796" y="50.060414943924116" end_time="09:00:00" >
			</activity>
			<leg mode="car">
			</leg>
			<activity type="work" x="20.280156177905464" y="50.099721380788154" end_time="17:00:00" >
			</activity>
			<leg mode="car">
			</leg>
			<activity type="home" x="20.120592693654796" y="50.060414943924116" end_time="09:00:00" >
			</activity>
		</plan>

	</person>

<!-- ====================================================================== -->

	<person id="car_home3_work3_3">
		<plan selected="yes">
			<activity type="home" x="20.120592693654796" y="50.060414943924116" end_time="09:00:00" >
			</activity>
			<leg mode="car">
			</leg>
			<activity type="work" x="20.280156177905464" y="50.099721380788154" end_time="17:00:00" >
			</activity>
			<leg mode="car">
			</leg>
			<activity type="home" x="20.120592693654796" y="50.060414943924116" end_time="09:00:00" >
			</activity>
		</plan>

	</person>

<!-- ====================================================================== -->

	<person id="car_home4_work4_0">
		<plan selected="yes">
			<activity type="home" x="19.819996331855428" y="50.03958312494744" end_time="09:00:00" >
			</activity>
			<leg mode="car">
			</leg>
			<activity type="work" x="20.28351265726131" y="49.949450071155674" end_time="17:00:00" >
			</activity>
			<leg mode="car">
			</leg>
			<activity type="home" x="19.819996331855428" y="50.03958312494744" end_time="09:00:00" >
			</activity>
		</plan>

	</person>

<!-- ====================================================================== -->

	<person id="car_home4_work4_1">
		<plan selected="yes">
			<activity type="home" x="19.819996331855428" y="50.03958312494744" end_time="09:00:00" >
			</activity>
			<leg mode="car">
			</leg>
			<activity type="work" x="20.28351265726131" y="49.949450071155674" end_time="17:00:00" >
			</activity>
			<leg mode="car">
			</leg>
			<activity type="home" x="19.819996331855428" y="50.03958312494744" end_time="09:00:00" >
			</activity>
		</plan>

	</person>

<!-- ====================================================================== -->

	<person id="car_home4_work4_2">
		<plan selected="yes">
			<activity type="home" x="19.819996331855428" y="50.03958312494744" end_time="09:00:00" >
			</activity>
			<leg mode="car">
			</leg>
			<activity type="work" x="20.28351265726131" y="49.949450071155674" end_time="17:00:00" >
			</activity>
			<leg mode="car">
			</leg>
			<activity type="home" x="19.819996331855428" y="50.03958312494744" end_time="09:00:00" >
			</activity>
		</plan>

	</person>

<!-- ====================================================================== -->

	<person id="car_home4_work4_3">
		<plan selected="yes">
			<activity type="home" x="19.819996331855428" y="50.03958312494744" end_time="09:00:00" >
			</activity>
			<leg mode="car">
			</leg>
			<activity type="work" x="20.28351265726131" y="49.949450071155674" end_time="17:00:00" >
			</activity>
			<leg mode="car">
			</leg>
			<activity type="home" x="19.819996331855428" y="50.03958312494744" end_time="09:00:00" >
			</activity>
		</plan>

	</person>

<!-- ====================================================================== -->

	<person id="car_home5_work5_0">
		<plan selected="yes">
			<activity type="home" x="20.29058603140257" y="49.93863963117727" end_time="09:00:00" >
			</activity>
			<leg mode="car">
			</leg>
			<activity type="work" x="20.2469730441329" y="50.086631911733164" end_time="17:00:00" >
			</activity>
			<leg mode="car">
			</leg>
			<activity type="home" x="20.29058603140257" y="49.93863963117727" end_time="09:00:00" >
			</activity>
		</plan>

	</person>

<!-- ====================================================================== -->

	<person id="car_home5_work5_1">
		<plan selected="yes">
			<activity type="home" x="20.29058603140257" y="49.93863963117727" end_time="09:00:00" >
			</activity>
			<leg mode="car">
			</leg>
			<activity type="work" x="20.2469730441329" y="50.086631911733164" end_time="17:00:00" >
			</activity>
			<leg mode="car">
			</leg>
			<activity type="home" x="20.29058603140257" y="49.93863963117727" end_time="09:00:00" >
			</activity>
		</plan>

	</person>

<!-- ====================================================================== -->

	<person id="car_home5_work5_2">
		<plan selected="yes">
			<activity type="home" x="20.29058603140257" y="49.93863963117727" end_time="09:00:00" >
			</activity>
			<leg mode="car">
			</leg>
			<activity type="work" x="20.2469730441329" y="50.086631911733164" end_time="17:00:00" >
			</activity>
			<leg mode="car">
			</leg>
			<activity type="home" x="20.29058603140257" y="49.93863963117727" end_time="09:00:00" >
			</activity>
		</plan>

	</person>

<!-- ====================================================================== -->

	<person id="car_home5_work5_3">
		<plan selected="yes">
			<activity type="home" x="20.29058603140257" y="49.93863963117727" end_time="09:00:00" >
			</activity>
			<leg mode="car">
			</leg>
			<activity type="work" x="20.2469730441329" y="50.086631911733164" end_time="17:00:00" >
			</activity>
			<leg mode="car">
			</leg>
			<activity type="home" x="20.29058603140257" y="49.93863963117727" end_time="09:00:00" >
			</activity>
		</plan>

	</person>

<!-- ====================================================================== -->

	<person id="car_home6_work6_0">
		<plan selected="yes">
			<activity type="home" x="19.83297055055855" y="50.15855012185437" end_time="09:00:00" >
			</activity>
			<leg mode="car">
			</leg>
			<activity type="work" x="19.951603193845536" y="49.93022093955143" end_time="17:00:00" >
			</activity>
			<leg mode="car">
			</leg>
			<activity type="home" x="19.83297055055855" y="50.15855012185437" end_time="09:00:00" >
			</activity>
		</plan>

	</person>

<!-- ====================================================================== -->

	<person id="car_home6_work6_1">
		<plan selected="yes">
			<activity type="home" x="19.83297055055855" y="50.15855012185437" end_time="09:00:00" >
			</activity>
			<leg mode="car">
			</leg>
			<activity type="work" x="19.951603193845536" y="49.93022093955143" end_time="17:00:00" >
			</activity>
			<leg mode="car">
			</leg>
			<activity type="home" x="19.83297055055855" y="50.15855012185437" end_time="09:00:00" >
			</activity>
		</plan>

	</person>

<!-- ====================================================================== -->

	<person id="car_home6_work6_2">
		<plan selected="yes">
			<activity type="home" x="19.83297055055855" y="50.15855012185437" end_time="09:00:00" >
			</activity>
			<leg mode="car">
			</leg>
			<activity type="work" x="19.951603193845536" y="49.93022093955143" end_time="17:00:00" >
			</activity>
			<leg mode="car">
			</leg>
			<activity type="home" x="19.83297055055855" y="50.15855012185437" end_time="09:00:00" >
			</activity>
		</plan>

	</person>

<!-- ====================================================================== -->

	<person id="car_home6_work6_3">
		<plan selected="yes">
			<activity type="home" x="19.83297055055855" y="50.15855012185437" end_time="09:00:00" >
			</activity>
			<leg mode="car">
			</leg>
			<activity type="work" x="19.951603193845536" y="49.93022093955143" end_time="17:00:00" >
			</activity>
			<leg mode="car">
			</leg>
			<activity type="home" x="19.83297055055855" y="50.15855012185437" end_time="09:00:00" >
			</activity>
		</plan>

	</person>

<!-- ====================================================================== -->

	<person id="car_home7_work7_0">
		<plan selected="yes">
			<activity type="home" x="19.740255829727424" y="50.091104769990636" end_time="09:00:00" >
			</activity>
			<leg mode="car">
			</leg>
			<activity type="work" x="20.030367828886323" y="50.04486474905354" end_time="17:00:00" >
			</activity>
			<leg mode="car">
			</leg>
			<activity type="home" x="19.740255829727424" y="50.091104769990636" end_time="09:00:00" >
			</activity>
		</plan>

	</person>

<!-- ====================================================================== -->

	<person id="car_home7_work7_1">
		<plan selected="yes">
			<activity type="home" x="19.740255829727424" y="50.091104769990636" end_time="09:00:00" >
			</activity>
			<leg mode="car">
			</leg>
			<activity type="work" x="20.030367828886323" y="50.04486474905354" end_time="17:00:00" >
			</activity>
			<leg mode="car">
			</leg>
			<activity type="home" x="19.740255829727424" y="50.091104769990636" end_time="09:00:00" >
			</activity>
		</plan>

	</person>

<!-- ====================================================================== -->

	<person id="car_home7_work7_2">
		<plan selected="yes">
			<activity type="home" x="19.740255829727424" y="50.091104769990636" end_time="09:00:00" >
			</activity>
			<leg mode="car">
			</leg>
			<activity type="work" x="20.030367828886323" y="50.04486474905354" end_time="17:00:00" >
			</activity>
			<leg mode="car">
			</leg>
			<activity type="home" x="19.740255829727424" y="50.091104769990636" end_time="09:00:00" >
			</activity>
		</plan>

	</person>

<!-- ====================================================================== -->

	<person id="car_home7_work7_3">
		<plan selected="yes">
			<activity type="home" x="19.740255829727424" y="50.091104769990636" end_time="09:00:00" >
			</activity>
			<leg mode="car">
			</leg>
			<activity type="work" x="20.030367828886323" y="50.04486474905354" end_time="17:00:00" >
			</activity>
			<leg mode="car">
			</leg>
			<activity type="home" x="19.740255829727424" y="50.091104769990636" end_time="09:00:00" >
			</activity>
		</plan>

	</person>

<!-- ====================================================================== -->

	<person id="car_home8_work8_0">
		<plan selected="yes">
			<activity type="home" x="20.23896648180208" y="50.13179367860482" end_time="09:00:00" >
			</activity>
			<leg mode="car">
			</leg>
			<activity type="work" x="19.78865976508065" y="50.05967094376386" end_time="17:00:00" >
			</activity>
			<leg mode="car">
			</leg>
			<activity type="home" x="20.23896648180208" y="50.13179367860482" end_time="09:00:00" >
			</activity>
		</plan>

	</person>

<!-- ====================================================================== -->

	<person id="car_home8_work8_1">
		<plan selected="yes">
			<activity type="home" x="20.23896648180208" y="50.13179367860482" end_time="09:00:00" >
			</activity>
			<leg mode="car">
			</leg>
			<activity type="work" x="19.78865976508065" y="50.05967094376386" end_time="17:00:00" >
			</activity>
			<leg mode="car">
			</leg>
			<activity type="home" x="20.23896648180208" y="50.13179367860482" end_time="09:00:00" >
			</activity>
		</plan>

	</person>

<!-- ====================================================================== -->

	<person id="car_home8_work8_2">
		<plan selected="yes">
			<activity type="home" x="20.23896648180208" y="50.13179367860482" end_time="09:00:00" >
			</activity>
			<leg mode="car">
			</leg>
			<activity type="work" x="19.78865976508065" y="50.05967094376386" end_time="17:00:00" >
			</activity>
			<leg mode="car">
			</leg>
			<activity type="home" x="20.23896648180208" y="50.13179367860482" end_time="09:00:00" >
			</activity>
		</plan>

	</person>

<!-- ====================================================================== -->

	<person id="car_home8_work8_3">
		<plan selected="yes">
			<activity type="home" x="20.23896648180208" y="50.13179367860482" end_time="09:00:00" >
			</activity>
			<leg mode="car">
			</leg>
			<activity type="work" x="19.78865976508065" y="50.05967094376386" end_time="17:00:00" >
			</activity>
			<leg mode="car">
			</leg>
			<activity type="home" x="20.23896648180208" y="50.13179367860482" end_time="09:00:00" >
			</activity>
		</plan>

	</person>

<!-- ====================================================================== -->

	<person id="car_home9_work9_0">
		<plan selected="yes">
			<activity type="home" x="20.281680245892346" y="50.07242493734495" end_time="09:00:00" >
			</activity>
			<leg mode="car">
			</leg>
			<activity type="work" x="20.290794993394286" y="50.16337051595245" end_time="17:00:00" >
			</activity>
			<leg mode="car">
			</leg>
			<activity type="home" x="20.281680245892346" y="50.07242493734495" end_time="09:00:00" >
			</activity>
		</plan>

	</person>

<!-- ====================================================================== -->

	<person id="car_home9_work9_1">
		<plan selected="yes">
			<activity type="home" x="20.281680245892346" y="50.07242493734495" end_time="09:00:00" >
			</activity>
			<leg mode="car">
			</leg>
			<activity type="work" x="20.290794993394286" y="50.16337051595245" end_time="17:00:00" >
			</activity>
			<leg mode="car">
			</leg>
			<activity type="home" x="20.281680245892346" y="50.07242493734495" end_time="09:00:00" >
			</activity>
		</plan>

	</person>

<!-- ====================================================================== -->

	<person id="car_home9_work9_2">
		<plan selected="yes">
			<activity type="home" x="20.281680245892346" y="50.07242493734495" end_time="09:00:00" >
			</activity>
			<leg mode="car">
			</leg>
			<activity type="work" x="20.290794993394286" y="50.16337051595245" end_time="17:00:00" >
			</activity>
			<leg mode="car">
			</leg>
			<activity type="home" x="20.281680245892346" y="50.07242493734495" end_time="09:00:00" >
			</activity>
		</plan>

	</person>

<!-- ====================================================================== -->

	<person id="car_home9_work9_3">
		<plan selected="yes">
			<activity type="home" x="20.281680245892346" y="50.07242493734495" end_time="09:00:00" >
			</activity>
			<leg mode="car">
			</leg>
			<activity type="work" x="20.290794993394286" y="50.16337051595245" end_time="17:00:00" >
			</activity>
			<leg mode="car">
			</leg>
			<activity type="home" x="20.281680245892346" y="50.07242493734495" end_time="09:00:00" >
			</activity>
		</plan>

	</person>

<!-- ====================================================================== -->

</population>
