<?xml version="1.0" encoding="utf-8"?>
<!DOCTYPE population SYSTEM "http://www.matsim.org/files/dtd/population_v6.dtd">

<population>



<!-- ====================================================================== -->

	<person id="car_home0_work0_0">
		<plan selected="yes">
			<activity type="home" x="419542.0929678776" y="5541920.689380676" end_time="09:00:00" >
			</activity>
			<leg mode="car">
			</leg>
			<activity type="work" x="425197.1430747059" y="5544942.832238467" end_time="17:00:00" >
			</activity>
			<leg mode="car">
			</leg>
			<activity type="home" x="419542.0929678776" y="5541920.689380676" end_time="09:00:00" >
			</activity>
		</plan>

	</person>

<!-- ====================================================================== -->

	<person id="car_home0_work0_1">
		<plan selected="yes">
			<activity type="home" x="419542.0929678776" y="5541920.689380676" end_time="09:00:00" >
			</activity>
			<leg mode="car">
			</leg>
			<activity type="work" x="425197.1430747059" y="5544942.832238467" end_time="17:00:00" >
			</activity>
			<leg mode="car">
			</leg>
			<activity type="home" x="419542.0929678776" y="5541920.689380676" end_time="09:00:00" >
			</activity>
		</plan>

	</person>

<!-- ====================================================================== -->

	<person id="car_home0_work0_2">
		<plan selected="yes">
			<activity type="home" x="419542.0929678776" y="5541920.689380676" end_time="09:00:00" >
			</activity>
			<leg mode="car">
			</leg>
			<activity type="work" x="425197.1430747059" y="5544942.832238467" end_time="17:00:00" >
			</activity>
			<leg mode="car">
			</leg>
			<activity type="home" x="419542.0929678776" y="5541920.689380676" end_time="09:00:00" >
			</activity>
		</plan>

	</person>

<!-- ====================================================================== -->

	<person id="car_home0_work0_3">
		<plan selected="yes">
			<activity type="home" x="419542.0929678776" y="5541920.689380676" end_time="09:00:00" >
			</activity>
			<leg mode="car">
			</leg>
			<activity type="work" x="425197.1430747059" y="5544942.832238467" end_time="17:00:00" >
			</activity>
			<leg mode="car">
			</leg>
			<activity type="home" x="419542.0929678776" y="5541920.689380676" end_time="09:00:00" >
			</activity>
		</plan>

	</person>

<!-- ====================================================================== -->

	<person id="car_home1_work1_0">
		<plan selected="yes">
			<activity type="home" x="411485.060521803" y="5531389.049314721" end_time="09:00:00" >
			</activity>
			<leg mode="car">
			</leg>
			<activity type="work" x="419460.5174146928" y="5556809.266765125" end_time="17:00:00" >
			</activity>
			<leg mode="car">
			</leg>
			<activity type="home" x="411485.060521803" y="5531389.049314721" end_time="09:00:00" >
			</activity>
		</plan>

	</person>

<!-- ====================================================================== -->

	<person id="car_home1_work1_1">
		<plan selected="yes">
			<activity type="home" x="411485.060521803" y="5531389.049314721" end_time="09:00:00" >
			</activity>
			<leg mode="car">
			</leg>
			<activity type="work" x="419460.5174146928" y="5556809.266765125" end_time="17:00:00" >
			</activity>
			<leg mode="car">
			</leg>
			<activity type="home" x="411485.060521803" y="5531389.049314721" end_time="09:00:00" >
			</activity>
		</plan>

	</person>

<!-- ====================================================================== -->

	<person id="car_home1_work1_2">
		<plan selected="yes">
			<activity type="home" x="411485.060521803" y="5531389.049314721" end_time="09:00:00" >
			</activity>
			<leg mode="car">
			</leg>
			<activity type="work" x="419460.5174146928" y="5556809.266765125" end_time="17:00:00" >
			</activity>
			<leg mode="car">
			</leg>
			<activity type="home" x="411485.060521803" y="5531389.049314721" end_time="09:00:00" >
			</activity>
		</plan>

	</person>

<!-- ====================================================================== -->

	<person id="car_home1_work1_3">
		<plan selected="yes">
			<activity type="home" x="411485.060521803" y="5531389.049314721" end_time="09:00:00" >
			</activity>
			<leg mode="car">
			</leg>
			<activity type="work" x="419460.5174146928" y="5556809.266765125" end_time="17:00:00" >
			</activity>
			<leg mode="car">
			</leg>
			<activity type="home" x="411485.060521803" y="5531389.049314721" end_time="09:00:00" >
			</activity>
		</plan>

	</person>

<!-- ====================================================================== -->

	<person id="car_home2_work2_0">
		<plan selected="yes">
			<activity type="home" x="450600.15494142385" y="5536875.741876093" end_time="09:00:00" >
			</activity>
			<leg mode="car">
			</leg>
			<activity type="work" x="448100.7069599703" y="5539751.476925955" end_time="17:00:00" >
			</activity>
			<leg mode="car">
			</leg>
			<activity type="home" x="450600.15494142385" y="5536875.741876093" end_time="09:00:00" >
			</activity>
		</plan>

	</person>

<!-- ====================================================================== -->

	<person id="car_home2_work2_1">
		<plan selected="yes">
			<activity type="home" x="450600.15494142385" y="5536875.741876093" end_time="09:00:00" >
			</activity>
			<leg mode="car">
			</leg>
			<activity type="work" x="448100.7069599703" y="5539751.476925955" end_time="17:00:00" >
			</activity>
			<leg mode="car">
			</leg>
			<activity type="home" x="450600.15494142385" y="5536875.741876093" end_time="09:00:00" >
			</activity>
		</plan>

	</person>

<!-- ====================================================================== -->

	<person id="car_home2_work2_2">
		<plan selected="yes">
			<activity type="home" x="450600.15494142385" y="5536875.741876093" end_time="09:00:00" >
			</activity>
			<leg mode="car">
			</leg>
			<activity type="work" x="448100.7069599703" y="5539751.476925955" end_time="17:00:00" >
			</activity>
			<leg mode="car">
			</leg>
			<activity type="home" x="450600.15494142385" y="5536875.741876093" end_time="09:00:00" >
			</activity>
		</plan>

	</person>

<!-- ====================================================================== -->

	<person id="car_home2_work2_3">
		<plan selected="yes">
			<activity type="home" x="450600.15494142385" y="5536875.741876093" end_time="09:00:00" >
			</activity>
			<leg mode="car">
			</leg>
			<activity type="work" x="448100.7069599703" y="5539751.476925955" end_time="17:00:00" >
			</activity>
			<leg mode="car">
			</leg>
			<activity type="home" x="450600.15494142385" y="5536875.741876093" end_time="09:00:00" >
			</activity>
		</plan>

	</person>

<!-- ====================================================================== -->

	<person id="car_home3_work3_0">
		<plan selected="yes">
			<activity type="home" x="427135.36168336857" y="5544665.290239766" end_time="09:00:00" >
			</activity>
			<leg mode="car">
			</leg>
			<activity type="work" x="447264.66851231724" y="5548566.147538501" end_time="17:00:00" >
			</activity>
			<leg mode="car">
			</leg>
			<activity type="home" x="427135.36168336857" y="5544665.290239766" end_time="09:00:00" >
			</activity>
		</plan>

	</person>

<!-- ====================================================================== -->

	<person id="car_home3_work3_1">
		<plan selected="yes">
			<activity type="home" x="427135.36168336857" y="5544665.290239766" end_time="09:00:00" >
			</activity>
			<leg mode="car">
			</leg>
			<activity type="work" x="447264.66851231724" y="5548566.147538501" end_time="17:00:00" >
			</activity>
			<leg mode="car">
			</leg>
			<activity type="home" x="427135.36168336857" y="5544665.290239766" end_time="09:00:00" >
			</activity>
		</plan>

	</person>

<!-- ====================================================================== -->

	<person id="car_home3_work3_2">
		<plan selected="yes">
			<activity type="home" x="427135.36168336857" y="5544665.290239766" end_time="09:00:00" >
			</activity>
			<leg mode="car">
			</leg>
			<activity type="work" x="447264.66851231724" y="5548566.147538501" end_time="17:00:00" >
			</activity>
			<leg mode="car">
			</leg>
			<activity type="home" x="427135.36168336857" y="5544665.290239766" end_time="09:00:00" >
			</activity>
		</plan>

	</person>

<!-- ====================================================================== -->

	<person id="car_home3_work3_3">
		<plan selected="yes">
			<activity type="home" x="427135.36168336857" y="5544665.290239766" end_time="09:00:00" >
			</activity>
			<leg mode="car">
			</leg>
			<activity type="work" x="447264.66851231724" y="5548566.147538501" end_time="17:00:00" >
			</activity>
			<leg mode="car">
			</leg>
			<activity type="home" x="427135.36168336857" y="5544665.290239766" end_time="09:00:00" >
			</activity>
		</plan>

	</person>

<!-- ====================================================================== -->

	<person id="car_home4_work4_0">
		<plan selected="yes">
			<activity type="home" x="414351.2420877676" y="5551127.095818654" end_time="09:00:00" >
			</activity>
			<leg mode="car">
			</leg>
			<activity type="work" x="435003.0611728086" y="5539526.097330329" end_time="17:00:00" >
			</activity>
			<leg mode="car">
			</leg>
			<activity type="home" x="414351.2420877676" y="5551127.095818654" end_time="09:00:00" >
			</activity>
		</plan>

	</person>

<!-- ====================================================================== -->

	<person id="car_home4_work4_1">
		<plan selected="yes">
			<activity type="home" x="414351.2420877676" y="5551127.095818654" end_time="09:00:00" >
			</activity>
			<leg mode="car">
			</leg>
			<activity type="work" x="435003.0611728086" y="5539526.097330329" end_time="17:00:00" >
			</activity>
			<leg mode="car">
			</leg>
			<activity type="home" x="414351.2420877676" y="5551127.095818654" end_time="09:00:00" >
			</activity>
		</plan>

	</person>

<!-- ====================================================================== -->

	<person id="car_home4_work4_2">
		<plan selected="yes">
			<activity type="home" x="414351.2420877676" y="5551127.095818654" end_time="09:00:00" >
			</activity>
			<leg mode="car">
			</leg>
			<activity type="work" x="435003.0611728086" y="5539526.097330329" end_time="17:00:00" >
			</activity>
			<leg mode="car">
			</leg>
			<activity type="home" x="414351.2420877676" y="5551127.095818654" end_time="09:00:00" >
			</activity>
		</plan>

	</person>

<!-- ====================================================================== -->

	<person id="car_home4_work4_3">
		<plan selected="yes">
			<activity type="home" x="414351.2420877676" y="5551127.095818654" end_time="09:00:00" >
			</activity>
			<leg mode="car">
			</leg>
			<activity type="work" x="435003.0611728086" y="5539526.097330329" end_time="17:00:00" >
			</activity>
			<leg mode="car">
			</leg>
			<activity type="home" x="414351.2420877676" y="5551127.095818654" end_time="09:00:00" >
			</activity>
		</plan>

	</person>

<!-- ====================================================================== -->

	<person id="car_home5_work5_0">
		<plan selected="yes">
			<activity type="home" x="427440.2945475497" y="5555264.46411565" end_time="09:00:00" >
			</activity>
			<leg mode="car">
			</leg>
			<activity type="work" x="423030.61106845667" y="5538803.982704773" end_time="17:00:00" >
			</activity>
			<leg mode="car">
			</leg>
			<activity type="home" x="427440.2945475497" y="5555264.46411565" end_time="09:00:00" >
			</activity>
		</plan>

	</person>

<!-- ====================================================================== -->

	<person id="car_home5_work5_1">
		<plan selected="yes">
			<activity type="home" x="427440.2945475497" y="5555264.46411565" end_time="09:00:00" >
			</activity>
			<leg mode="car">
			</leg>
			<activity type="work" x="423030.61106845667" y="5538803.982704773" end_time="17:00:00" >
			</activity>
			<leg mode="car">
			</leg>
			<activity type="home" x="427440.2945475497" y="5555264.46411565" end_time="09:00:00" >
			</activity>
		</plan>

	</person>

<!-- ====================================================================== -->

	<person id="car_home5_work5_2">
		<plan selected="yes">
			<activity type="home" x="427440.2945475497" y="5555264.46411565" end_time="09:00:00" >
			</activity>
			<leg mode="car">
			</leg>
			<activity type="work" x="423030.61106845667" y="5538803.982704773" end_time="17:00:00" >
			</activity>
			<leg mode="car">
			</leg>
			<activity type="home" x="427440.2945475497" y="5555264.46411565" end_time="09:00:00" >
			</activity>
		</plan>

	</person>

<!-- ====================================================================== -->

	<person id="car_home5_work5_3">
		<plan selected="yes">
			<activity type="home" x="427440.2945475497" y="5555264.46411565" end_time="09:00:00" >
			</activity>
			<leg mode="car">
			</leg>
			<activity type="work" x="423030.61106845667" y="5538803.982704773" end_time="17:00:00" >
			</activity>
			<leg mode="car">
			</leg>
			<activity type="home" x="427440.2945475497" y="5555264.46411565" end_time="09:00:00" >
			</activity>
		</plan>

	</person>

<!-- ====================================================================== -->

	<person id="car_home6_work6_0">
		<plan selected="yes">
			<activity type="home" x="423226.0171396355" y="5543823.071205688" end_time="09:00:00" >
			</activity>
			<leg mode="car">
			</leg>
			<activity type="work" x="419808.2074424282" y="5536453.735596144" end_time="17:00:00" >
			</activity>
			<leg mode="car">
			</leg>
			<activity type="home" x="423226.0171396355" y="5543823.071205688" end_time="09:00:00" >
			</activity>
		</plan>

	</person>

<!-- ====================================================================== -->

	<person id="car_home6_work6_1">
		<plan selected="yes">
			<activity type="home" x="423226.0171396355" y="5543823.071205688" end_time="09:00:00" >
			</activity>
			<leg mode="car">
			</leg>
			<activity type="work" x="419808.2074424282" y="5536453.735596144" end_time="17:00:00" >
			</activity>
			<leg mode="car">
			</leg>
			<activity type="home" x="423226.0171396355" y="5543823.071205688" end_time="09:00:00" >
			</activity>
		</plan>

	</person>

<!-- ====================================================================== -->

	<person id="car_home6_work6_2">
		<plan selected="yes">
			<activity type="home" x="423226.0171396355" y="5543823.071205688" end_time="09:00:00" >
			</activity>
			<leg mode="car">
			</leg>
			<activity type="work" x="419808.2074424282" y="5536453.735596144" end_time="17:00:00" >
			</activity>
			<leg mode="car">
			</leg>
			<activity type="home" x="423226.0171396355" y="5543823.071205688" end_time="09:00:00" >
			</activity>
		</plan>

	</person>

<!-- ====================================================================== -->

	<person id="car_home6_work6_3">
		<plan selected="yes">
			<activity type="home" x="423226.0171396355" y="5543823.071205688" end_time="09:00:00" >
			</activity>
			<leg mode="car">
			</leg>
			<activity type="work" x="419808.2074424282" y="5536453.735596144" end_time="17:00:00" >
			</activity>
			<leg mode="car">
			</leg>
			<activity type="home" x="423226.0171396355" y="5543823.071205688" end_time="09:00:00" >
			</activity>
		</plan>

	</person>

<!-- ====================================================================== -->

	<person id="car_home7_work7_0">
		<plan selected="yes">
			<activity type="home" x="430556.43355034647" y="5546343.701068168" end_time="09:00:00" >
			</activity>
			<leg mode="car">
			</leg>
			<activity type="work" x="434389.5828141305" y="5551040.34327157" end_time="17:00:00" >
			</activity>
			<leg mode="car">
			</leg>
			<activity type="home" x="430556.43355034647" y="5546343.701068168" end_time="09:00:00" >
			</activity>
		</plan>

	</person>

<!-- ====================================================================== -->

	<person id="car_home7_work7_1">
		<plan selected="yes">
			<activity type="home" x="430556.43355034647" y="5546343.701068168" end_time="09:00:00" >
			</activity>
			<leg mode="car">
			</leg>
			<activity type="work" x="434389.5828141305" y="5551040.34327157" end_time="17:00:00" >
			</activity>
			<leg mode="car">
			</leg>
			<activity type="home" x="430556.43355034647" y="5546343.701068168" end_time="09:00:00" >
			</activity>
		</plan>

	</person>

<!-- ====================================================================== -->

	<person id="car_home7_work7_2">
		<plan selected="yes">
			<activity type="home" x="430556.43355034647" y="5546343.701068168" end_time="09:00:00" >
			</activity>
			<leg mode="car">
			</leg>
			<activity type="work" x="434389.5828141305" y="5551040.34327157" end_time="17:00:00" >
			</activity>
			<leg mode="car">
			</leg>
			<activity type="home" x="430556.43355034647" y="5546343.701068168" end_time="09:00:00" >
			</activity>
		</plan>

	</person>

<!-- ====================================================================== -->

	<person id="car_home7_work7_3">
		<plan selected="yes">
			<activity type="home" x="430556.43355034647" y="5546343.701068168" end_time="09:00:00" >
			</activity>
			<leg mode="car">
			</leg>
			<activity type="work" x="434389.5828141305" y="5551040.34327157" end_time="17:00:00" >
			</activity>
			<leg mode="car">
			</leg>
			<activity type="home" x="430556.43355034647" y="5546343.701068168" end_time="09:00:00" >
			</activity>
		</plan>

	</person>

<!-- ====================================================================== -->

	<person id="car_home8_work8_0">
		<plan selected="yes">
			<activity type="home" x="445205.3430508786" y="5537242.326041774" end_time="09:00:00" >
			</activity>
			<leg mode="car">
			</leg>
			<activity type="work" x="436737.7009782915" y="5532033.067963183" end_time="17:00:00" >
			</activity>
			<leg mode="car">
			</leg>
			<activity type="home" x="445205.3430508786" y="5537242.326041774" end_time="09:00:00" >
			</activity>
		</plan>

	</person>

<!-- ====================================================================== -->

	<person id="car_home8_work8_1">
		<plan selected="yes">
			<activity type="home" x="445205.3430508786" y="5537242.326041774" end_time="09:00:00" >
			</activity>
			<leg mode="car">
			</leg>
			<activity type="work" x="436737.7009782915" y="5532033.067963183" end_time="17:00:00" >
			</activity>
			<leg mode="car">
			</leg>
			<activity type="home" x="445205.3430508786" y="5537242.326041774" end_time="09:00:00" >
			</activity>
		</plan>

	</person>

<!-- ====================================================================== -->

	<person id="car_home8_work8_2">
		<plan selected="yes">
			<activity type="home" x="445205.3430508786" y="5537242.326041774" end_time="09:00:00" >
			</activity>
			<leg mode="car">
			</leg>
			<activity type="work" x="436737.7009782915" y="5532033.067963183" end_time="17:00:00" >
			</activity>
			<leg mode="car">
			</leg>
			<activity type="home" x="445205.3430508786" y="5537242.326041774" end_time="09:00:00" >
			</activity>
		</plan>

	</person>

<!-- ====================================================================== -->

	<person id="car_home8_work8_3">
		<plan selected="yes">
			<activity type="home" x="445205.3430508786" y="5537242.326041774" end_time="09:00:00" >
			</activity>
			<leg mode="car">
			</leg>
			<activity type="work" x="436737.7009782915" y="5532033.067963183" end_time="17:00:00" >
			</activity>
			<leg mode="car">
			</leg>
			<activity type="home" x="445205.3430508786" y="5537242.326041774" end_time="09:00:00" >
			</activity>
		</plan>

	</person>

<!-- ====================================================================== -->

	<person id="car_home9_work9_0">
		<plan selected="yes">
			<activity type="home" x="425762.7095502635" y="5554018.341903914" end_time="09:00:00" >
			</activity>
			<leg mode="car">
			</leg>
			<activity type="work" x="444880.4850814283" y="5551754.62104921" end_time="17:00:00" >
			</activity>
			<leg mode="car">
			</leg>
			<activity type="home" x="425762.7095502635" y="5554018.341903914" end_time="09:00:00" >
			</activity>
		</plan>

	</person>

<!-- ====================================================================== -->

	<person id="car_home9_work9_1">
		<plan selected="yes">
			<activity type="home" x="425762.7095502635" y="5554018.341903914" end_time="09:00:00" >
			</activity>
			<leg mode="car">
			</leg>
			<activity type="work" x="444880.4850814283" y="5551754.62104921" end_time="17:00:00" >
			</activity>
			<leg mode="car">
			</leg>
			<activity type="home" x="425762.7095502635" y="5554018.341903914" end_time="09:00:00" >
			</activity>
		</plan>

	</person>

<!-- ====================================================================== -->

	<person id="car_home9_work9_2">
		<plan selected="yes">
			<activity type="home" x="425762.7095502635" y="5554018.341903914" end_time="09:00:00" >
			</activity>
			<leg mode="car">
			</leg>
			<activity type="work" x="444880.4850814283" y="5551754.62104921" end_time="17:00:00" >
			</activity>
			<leg mode="car">
			</leg>
			<activity type="home" x="425762.7095502635" y="5554018.341903914" end_time="09:00:00" >
			</activity>
		</plan>

	</person>

<!-- ====================================================================== -->

	<person id="car_home9_work9_3">
		<plan selected="yes">
			<activity type="home" x="425762.7095502635" y="5554018.341903914" end_time="09:00:00" >
			</activity>
			<leg mode="car">
			</leg>
			<activity type="work" x="444880.4850814283" y="5551754.62104921" end_time="17:00:00" >
			</activity>
			<leg mode="car">
			</leg>
			<activity type="home" x="425762.7095502635" y="5554018.341903914" end_time="09:00:00" >
			</activity>
		</plan>

	</person>

<!-- ====================================================================== -->

</population>
